Circuit: * C:\Users\14349\Desktop\Draft 4.asc

.OP point found by inspection.

Date: Mon Mar 08 18:24:24 2021
Total elapsed time: 0.096 seconds.

tnom = 27
temp = 27
method = modified trap
totiter = 2615
traniter = 2615
tranpoints = 1288
accept = 1244
rejected = 44
matrix size = 4
fillins = 0
solver = Normal
Matrix Compiler1:       6 opcodes  0.1/[0.0]/0.1
Matrix Compiler2: off  [0.0]/0.0/0.0

