Circuit: * C:\Users\14349\Desktop\Draft3.asc

.OP point found by inspection.

Date: Mon Mar 08 18:16:33 2021
Total elapsed time: 0.141 seconds.

tnom = 27
temp = 27
method = modified trap
totiter = 2530
traniter = 2530
tranpoints = 1266
accept = 1221
rejected = 45
matrix size = 6
fillins = 0
solver = Normal
Matrix Compiler1: 200 bytes object code size  0.1/0.1/[0.1]
Matrix Compiler2: 394 bytes object code size  0.1/0.1/[0.1]

