Circuit: * C:\Users\14349\Desktop\Draft2.asc

Direct Newton iteration for .op point succeeded.

Date: Mon Mar 08 18:20:48 2021
Total elapsed time: 0.224 seconds.

tnom = 27
temp = 27
method = modified trap
totiter = 4277
traniter = 4274
tranpoints = 2138
accept = 1874
rejected = 264
matrix size = 7
fillins = 0
solver = Normal
Matrix Compiler1: 412 bytes object code size  0.1/0.1/[0.1]
Matrix Compiler2: 519 bytes object code size  0.1/0.1/[0.1]

