Circuit: * C:\Users\14349\Desktop\Humidity Sensor.asc

Direct Newton iteration for .op point succeeded.

Date: Tue Mar 02 14:13:08 2021
Total elapsed time: 0.156 seconds.

tnom = 27
temp = 27
method = modified trap
totiter = 2107
traniter = 2102
tranpoints = 1052
accept = 1052
rejected = 0
matrix size = 5
fillins = 0
solver = Normal
Matrix Compiler1: 150 bytes object code size  0.1/0.1/[0.1]
Matrix Compiler2: 321 bytes object code size  0.1/0.1/[0.1]

